Version 4
SHEET 1 880 680
WIRE -64 112 -112 112
WIRE 48 112 16 112
WIRE 80 112 48 112
WIRE 192 112 160 112
WIRE -112 128 -112 112
FLAG -112 208 0
FLAG 48 176 0
FLAG 192 176 0
SYMBOL res 32 96 R90
WINDOW 0 0 56 VBottom 2
WINDOW 3 32 56 VTop 2
SYMATTR InstName R1
SYMATTR Value 470
SYMBOL res 176 96 R90
WINDOW 0 0 56 VBottom 2
WINDOW 3 32 56 VTop 2
SYMATTR InstName R2
SYMATTR Value 560
SYMBOL cap 32 112 R0
SYMATTR InstName C1
SYMATTR Value .1µ
SYMBOL cap 176 112 R0
SYMATTR InstName C2
SYMATTR Value .01µ
SYMBOL voltage -112 112 R0
WINDOW 123 24 124 Left 2
WINDOW 39 0 0 Left 2
SYMATTR Value2 AC .5
SYMATTR InstName V1
SYMATTR Value 2.5
TEXT 48 272 Left 2 !.ac dec 101 10 20k
